<?xml version="1.0" encoding="UTF-8"?>

<!-- generated on 2026-03-27T06:01:42.984178+05:30 by Eclipse SUMO duarouter 1.26.0
<duarouterConfiguration xmlns:xsi="http://www.w3.org/2001/XMLSchema-instance" xsi:noNamespaceSchemaLocation="http://sumo.dlr.de/xsd/duarouterConfiguration.xsd">

    <input>
        <net-file value="osm.net.xml"/>
        <additional-files value="vtypes.add.xml"/>
        <route-files value="trips_ambulance.xml"/>
    </input>

    <output>
        <output-file value="routes_ambulance.rou.xml"/>
    </output>

    <report>
        <ignore-errors value="true"/>
    </report>

</duarouterConfiguration>
-->

<routes xmlns:xsi="http://www.w3.org/2001/XMLSchema-instance" xsi:noNamespaceSchemaLocation="http://sumo.dlr.de/xsd/routes_file.xsd">
    <vehicle id="ambulance_0" type="ambulance" depart="0.00">
        <route edges="24584374#0 -24584374#0 1219699881#1 1219699881#2 1219699881#3 24583332#14 24583332#16 24583332#17 554665390 570526052 24583320#0 24583320#1 24584375#0 24584375#1 24584375#3 24584375#4 24584375#5 24584375#6 24584375#7 24584375#8 24584375#9 24584375#10 24584375#11 447141153#0 447141153#1 24584389#0 24584389#1 1066625119#0 1066625119#1 1066625119#2 1066625119#3 717907819#4 717907819#5 717907818#0 717907818#1 717907817#0 717907817#1 717907817#2 717907817#3 717907817#4 717907817#5 24577101#1 722082948#0 722082948#1 447141145 447141146 570413590 24577131 760536610#0 760536610#1 570413591 714992549#0 1307222667#1 722082947#0 722082947#1 722082946#0 722082946#1 760536612 680551209 758488038 758753872 758753873 24577391#0 722443696#0 722443696#1 722443696#2 722443696#3 -993538731#1 -993538731#0 -1075051024#2 -1075257702#1 -1075257702#0"/>
    </vehicle>
    <vehicle id="ambulance_1" type="ambulance" depart="120.00">
        <route edges="-695569947 695569947 758753881#1 590609994#0 590609994#1 572511730 447141148 572511731 447141147#0 24583334#0 24583334#1 24583334#4 24583334#5 24583337#4 24583337#5 1469015609#1 1469015609#2 1469015609#3 24583339#0 24583339#1 24583339#2 24583339#3 24583339#4 24583339#5 24583339#6 447141132#4 596373329 562340239 998790359 998790356#0 998790356#1 998790356#2 998790356#3 998790356#4 998790356#5 998790356#6 998790356#7 998790356#8 998790355#1 998790354#0 998790354#1 998790354#2 998790354#3 998790354#4 998790354#5 998790354#7 998790352#0 998790352#1 998790352#3 998790352#4 998790352#5 998790358#0 998790358#1 998790358#2 998790358#3 998790358#4 998790358#5 998790358#6 998790358#7 998790358#9 998790358#10 998790358#11 998790358#12 998790358#14 998790358#15 998790358#16 998790358#17 998790358#18 998790358#19 998790351#0 998790351#1 998790351#2 447141131#0 447141131#1 447141131#2 446922589 24583333#0 24583333#1 74851424#0 -1277942000#8 -1277942000#7 -1277942000#5 -1277942000#4 -1277942000#3 -1277942000#1 142865883#3 142865883#4 142865883#5 142865883#6 -553588769#1"/>
    </vehicle>
    <vehicle id="ambulance_2" type="ambulance" depart="240.00">
        <route edges="537797266#1 537797266#2 537797266#3 537797266#4 709276135#1 709276135#3 709276135#5 722082932 709276134 722082929 24577097#0 24577097#1 24577097#2 24577097#3 24577097#4 24577097#5 24577097#6 447141133#0 447141133#1 722082944 447141132#0 447141132#1 370545701#0 370545701#1 370545701#2 1469015609#5 24583337#0 24583337#1 24583337#2 24583335#0 24583335#1 24583335#2 24583335#4 24583335#5 447141147#2 24583324#0 24583324#1 590609994#0 590609994#1 717907807#0 717907807#1 717907807#2 717907807#3 717907807#4 717907807#6 24583320#0 24583320#1 570526051 447141152#0 447141152#1 570526053 447141150#0 111695525#0 44277690#1 44277690#2 44277690#5 44277690#6 1145143268#0 1145143268#1 31056642#2 31056642#3 31056643#0"/>
    </vehicle>
    <vehicle id="ambulance_3" type="ambulance" depart="360.00">
        <route edges="717454380#2 -717454371 1076782188#2 1076782188#3 -717454380#1 -717454380#0 38699591#13 38699591#14 38699591#15 28103794#3 572511732#0 572511732#1 572511732#2 572511732#3 572511732#4 572511732#5 572511732#6 572511732#7 572511732#8 572511732#9 446922591 760480736 562340247#0 562340247#1 562340247#2 562340247#3 562340247#4 562340247#5 562340245 23133709#0 23133709#1 23133709#2 23133709#3 23133709#4 562340241 564223496#0 564223496#1 24583332#0 24583332#1 24583332#2 24583332#3 24583332#4 24583332#5 24583332#6 24583332#7 24583332#8 24583332#9 24583332#10 24583332#11 24583332#14 24583332#16 24583332#17 554665390 570526052 24583320#0 24583320#1 570526051 447141152#0 447141152#1 570526053 447141150#0 111695525#0 1066625120#0 -1292286060#0 -1060463405#1 -1292286062"/>
    </vehicle>
    <vehicle id="ambulance_4" type="ambulance" depart="480.00">
        <route edges="1122220361 -1122220362#0 -1122220358#0 24583489#7 24583489#8 24583489#9 24583489#11 24583489#12 24583489#13 -24583487#12 -24583487#11 -24583487#10 -24583487#9 -24583487#8 -24583487#6 -24583487#5 -24583487#3 -24583487#2 -24583487#1 -24583487#0 1066619121#0 1066619121#1 997761548#0 997761548#1 997761545-AddedOnRampEdge 997761545 997761544 997761546#0 997761546#1 564223496#0 564223496#1 578543605 564223494#0 564223494#1 564223494#2 564223494#3 554665389#0 554665389#1 578543604 578543606 730111073#0 730111073#1 730111073#2 446922590#0 446922590#1 446922590#2 446922590#3 446922590#4 446922590#5 596346055#0 1252826818#1 1252826818#2 1252826818#3 154356516#0 154356516#1 154356516#2 154356516#3 154356516#4 154356516#5 154356516#6 154356516#7 154356516#8 154356516#9 154356516#10 38699591#5 -1076782197"/>
    </vehicle>
    <vehicle id="ambulance_5" type="ambulance" depart="600.00">
        <route edges="-370765179#6 -370765179#5 -370765175#1 -700293874#0 -1121191978#1 1277942000#0 1277942000#1 1277942000#3 1277942000#4 1277942000#5 1277942000#7 1277942000#8 1277941999#1 24583333#4 24583333#5 24583333#6 446922584#0 446922584#1 446922586#0 446922586#1 570859666#0 570859666#1 570859666#2 446922583#0 446922583#1 722082942 447141131#0 447141131#1 447141131#2 1076627689#0 1076627689#1 562439576 996679781#0 996679781#1 1312753971#0 1312753971#1 553596950 164782722 -265975966#14 -750482273#11 -750482273#10 -750482273#8 -750482273#7 -750482273#6 -750482273#5 -750482273#4 -750482273#3 -750482273#2 -750482273#1 -750482273#0 -154356517#2 -154356517#1 -154356517#0 154356517#0 154356517#1"/>
    </vehicle>
    <vehicle id="ambulance_7" type="ambulance" depart="840.00">
        <route edges="24584380#4 24584380#5 24584378#2 24584378#4 24584378#6 24584378#7 24584378#8 24584378#9 447141140 722082949#0 722082949#1 447141153#0 447141153#1 24584389#0 24584389#1 1066625119#0 1066625119#1 1066625119#2 1066625119#3 717907819#4 717907819#5 717907818#0 717907818#1 717907817#0 717907817#1 717907817#2 717907817#3 717907817#4 717907817#5 24577101#1 722082948#0 722082948#1 447141145 998790362#0 998790362#1 1327208477#0 1327208477#1 24577106#0 24577106#1 24577106#2 24577106#3 24577106#4 24577106#5 24577106#6 24577106#7 998790361 447141132#0 447141132#1 447141132#2 447141132#3 447141132#4 24577096#0 24577096#1 24577096#2 24577096#3 24577096#4 24577096#5 24577096#6 24577096#7 24577096#8 24577096#9 24577096#10 24577096#11 24577096#12 24577096#13"/>
    </vehicle>
    <vehicle id="ambulance_8" type="ambulance" depart="960.00">
        <route edges="-370902447 -112102241#0 24577418#5 24577372#3 24577372#4 680551212#3 680551212#4 582461172#0 582461172#1 582461172#3 680551211 680551207 23134098#0 23134098#1 23134098#1-AddedOffRampEdge 23134098#3 23134098#4 23134098#5 116046168#0 116046168#1 116046168#2 24577121#7 24577121#8 24577121#9 579781482#0 579781482#1 579781482#2 116046167#1 116046167#2 116046167#3 116046167#4 116046167#5 116046167#6 116046167#7 116046167#8 563679820#0 563679820#1 563679820#2 563679820#4 563679820#5 563679820#6 563679820#7 563679820#8 563679820#9 563679820#11 563679820#13 563679820#14 563679820#15 563679820#16 563679820#17 1312753971#0 1312753971#1 611866602#0 24582921#0 24582921#2"/>
    </vehicle>
    <vehicle id="ambulance_9" type="ambulance" depart="1080.00">
        <route edges="615556515#0 615556515#1 564223494#0 564223494#1 564223494#2 564223494#3 31056641 1393463455#1 1393463455#2 615556519#0 615556519#1 615556519#2 615556519#3 615556519#4 615556519#5 615556519#6 615556519#7 615556519#8 615556519#9 1285005493#1 1285005493#2 1285005493#3 1285005493#4 1285005493#5 1285005493#6 1285005493#7 1285005493#8 1285005493#9 1285005493#10 31056642#0 1145143267#0 1145143267#1 700305760#0 700305760#1 700305760#2 700305760#4 700305760#5 700305760#6 700305760#7 1066625120#0 -1292286060#0 -1060463405#1 -1060463405#0 -1060463404#0"/>
    </vehicle>
    <vehicle id="ambulance_10" type="ambulance" depart="1200.00">
        <route edges="612734124#1 612734124#2 -612734124#2 -612734124#1 612734123#0 612734123#1 -1074774612#1 -1074774612#0 24583332#3 24583332#4 24583332#5 24583332#6 24583332#7 24583332#8 24583332#9 24583332#10 24583332#11 24583332#14 24583332#16 24583332#17 554665390 24583321#0 24583321#1 24583321#2 997761553 997761552#0 997761552#1 994825990#0 994825990#1 994825990#2 447141148 572511731 447141147#0 447141147#1 447141147#2 758753883 1287398725#0 1287398725#1 1287398725#2 1287398725#3 371342951#0 371342951#1"/>
    </vehicle>
    <vehicle id="ambulance_11" type="ambulance" depart="1320.00">
        <route edges="-993539154#0 370765174#4 1138292933#0 1138292933#1 1138292933#2 1138292933#3 1138292933#4 1138292933#5 1138292933#6 1287065074#0 1287065074#1 1075734524#1 24583333#6 446922584#0 446922584#1 446922586#0 446922586#1 570859666#0 570859666#1 570859666#2 446922583#0 446922583#1 712992079#0 712992079#1 1202691839#0 -998790358#19 -998790358#18 -998790358#17 -998790358#16 -998790358#15 -998790358#14 -998790358#12 -998790358#11 -998790358#10 -998790358#9 -998790358#7 -998790358#6 -998790358#5 -998790358#4 -998790358#3 -998790358#2 -998790358#1 -998790358#0 998790353#0 998790353#1 116046167#1 -24583584#4 -24583584#3 -24583584#2"/>
    </vehicle>
    <vehicle id="ambulance_12" type="ambulance" depart="1440.00">
        <route edges="80926788#0 80926788#1 80926788#2 80926788#3 44263458#2 -1386086512#1 -1386086512#0 -311994764#3 -311994764#2 -311994764#1 -311994764#0 -253307769#0 -24584373#8 -24584373#7 -24584373#6 -24584373#5 -24584373#4 -24584373#3 -24584373#2 80926759#2 80926759#2-AddedOffRampEdge 80926759#3 80926759#4-AddedOnRampEdge 80926759#4 578543606 730111073#0 730111073#1 730111073#2 446922590#0 446922590#1 446922590#2 446922590#3 446922590#4 446922590#5 596349216 572511732#0 572511732#1 572511732#2 572511732#3 572511732#4 572511732#5 572511732#6 572511732#7 572511732#8 572511732#9 446922591 760480737 578543603#1 578543603#2 578543603#3 578543603#4 578543603#5 578543603#6 80499778#0 80499778#1 80499778#2 80499778#3 -1300354437#1 1000448884#3 1000448884#4"/>
    </vehicle>
    <vehicle id="ambulance_13" type="ambulance" depart="1560.00">
        <route edges="-1253202246#1 -1253202246#0 993539952#1 -773593791#3 -773593789 -1116448477#0 154356520#6 154356520#7 154356520#8 154356520#9 154356520#10 154356520#11 665921720 665921719 1312753970#0 1312753970#2 80499778#0 80499778#1 80499778#2 80499778#3 80499778#4 80499778#5 80499778#6 80499778#7 562340247#0 562340247#1 562340247#2 562340247#3 562340247#4 562340247#5 562340245 23133709#0 23133709#1 23133709#2 23133709#3 23133709#4 562340241 564223496#0 564223496#1 578543605 564223494#0 564223494#1 564223494#2 564223494#3 31056641 1393463455#1 1393463455#2 615556519#0 615556519#1 615556519#2 615556519#3 615556519#4 -44263461#8 -44263461#7 -44263461#6 -44263461#5 1074774614 -686682898#0 -1427873614#1"/>
    </vehicle>
    <vehicle id="ambulance_14" type="ambulance" depart="1680.00">
        <route edges="700293877#1 -1121139432#0 700293875#3 553590474#2 553590474#3 553590474#4 553590474#5 553590474#6 291266019#0 291266019#1 1312753970#0 1312753970#2 996679780#1 996679780#2 563974735#0 563974735#1 563974735#3 563974735#5 563974735#6 563974735#7 563974735#8 563974735#9 563974735#10 563974733#1 995793692#0 995793692#1 995793692#2 995793692#3 995793692#4 995793692#5 995793692#6 995793692#7 563975284#0 563974730#0 563974730#1 563974730#2 -24583491#3 -24583491#2 -24583491#1 -24583491#0 1374632732 1469015609#3 1469015609#4 1469015609#5 24583337#0 24583337#1 24583337#2 24583335#0 24583335#1 24583335#2 24583335#4"/>
    </vehicle>
    <vehicle id="ambulance_15" type="ambulance" depart="1800.00">
        <route edges="612750030#1 997761546#0 997761546#1 564223496#0 564223496#1 24583332#0 24583332#1 24583332#2 24583332#3 24583332#4 24583332#5 24583332#6 24583332#7 24583332#8 24583332#9 24583332#10 24583332#11 24583332#14 24583332#16 24583332#17 554665390 570526052 24583320#0 24583320#1 570526051 447141152#0 447141152#1 48964552#0 48964552#1 48964552#3"/>
    </vehicle>
    <vehicle id="ambulance_16" type="ambulance" depart="1920.00">
        <route edges="235103413#2 750482273#0 750482273#1 750482273#2 750482273#3 750482273#4 750482273#5 750482273#6 154356520#9 154356520#10 154356520#11 665921720 665921719 1312753970#0 1312753970#2 996679780#1 996679780#2 563974735#0 563974735#1 563974735#3 563974735#5 563974735#6 563974735#7 563974735#8 563974735#9 563974735#10 563974733#1 995793692#0 995793692#1 24583586#1 995792407 995792406#0 995792406#1 995792406#2 995792406#3 995792406#4"/>
    </vehicle>
    <vehicle id="ambulance_17" type="ambulance" depart="2040.00">
        <route edges="1072967423#0 1122028507#0 1122028508 111695524#3 111695524#4 111695524#5 111695524#7 44277692#1 44277692#2 447141149#1 447141149#2 665150702 554665390 24583321#0 24583321#1 24583321#2 997761553 997761552#0 997761552#1 994825990#0 994825990#1 994825990#2 447141148 572511731 447141147#0 24583334#0 24583334#1 24583334#4 24583334#5 24583337#4 24583337#5 1469015609#1 1469015609#2 1469015609#3 24583339#0 24583339#1 24583339#2 24583339#3 24583339#4 24583339#5 24583339#6 447141132#4 596373329 562340239 722082943#0 722082943#1 23134734#0 23134734#1 23134734#2 23134734#3 709276133#0 709276133#1 24577108#1 24577108#2"/>
    </vehicle>
    <vehicle id="ambulance_18" type="ambulance" depart="2160.00">
        <route edges="686673952#3 563791811#6 563791811#7 563974733#1 995793692#0 995793692#1 995793692#2 995793692#3 995793692#4 995793692#5 995793692#6 995793692#7 563975284#0 563974730#0 563974730#1 563974730#2 -24583491#3 -24583491#2 -24583491#1 -24583491#0 1374632732 1469015609#3 1469015609#4 1469015609#5 24583337#0 24583337#1 24583337#2 24583337#3 24583337#4 24583493 24583495#0 24583495#1 24583495#2 24583495#3"/>
    </vehicle>
    <vehicle id="ambulance_19" type="ambulance" depart="2280.00">
        <route edges="708786616#2 -718258884 -716015301#5 -716015301#4 -716015301#3 -772394684 677663227#1 677663227#2 677663227#3 677663227#4 581989173#5 581989173#6 680551206#0 680551206#2 680551212#0 680551212#1 680551212#2 680551212#3 680551212#4 582461172#0 582461172#1 582461172#3 680551211 680551207 23134098#0 23134098#1 23134098#1-AddedOffRampEdge 23134098#3 23134098#4 23134098#5 116046168#0 116046168#1 116046168#2 24577121#7 24577121#8 24577121#9 579781482#0 579781482#1 579781482#2 116046167#1 116046167#2 116046167#3 116046167#4 116046167#5 116046167#6 116046167#7 116046167#8 579781481#1 579781481#2 579781481#3 579781481#4 579781481#5 579781481#6 579781481#7 579781481#8 579781481#9 579781481#10 570616027 23133709#0 23133709#1 23133709#2 23133709#3 23133709#4 24577480#0 24577480#1 24577480#2 24577480#3 24577480#4"/>
    </vehicle>
    <vehicle id="ambulance_20" type="ambulance" depart="2400.00">
        <route edges="38235041#0 38235041#1 686925958 80926759#4-AddedOnRampEdge 80926759#4 578543606 730111073#0 730111073#1 730111073#2 446922590#0 446922590#1 24577486#0 24577486#1 24577486#3 24577486#4 24577486#5 23133486#24 23133486#25 23133486#26 23133486#0 23133486#1 23133486#2 23133486#3 23133486#4 23133486#5 23133486#6 23133486#7 23133486#8 23133486#9 23133486#10 23133486#11 24577488#0 24577488#1 24577488#2 24577488#3 24577488#4 24577488#5 24577488#6 24577488#7 24577488#8 24583332#0 24583332#1 24583332#2 24583332#3 24583332#4 24583332#5 24583332#6 24583332#7 24583332#8 24583332#9 24583332#10 24583332#11 24583332#14 24583332#16 24583332#17 554665390 570526052 24583320#0 24583320#1 570526051 447141152#0 447141152#1 570526053 447141150#0 111695525#0 1066625120#0 1066625120#1 1066625120#2 1066625120#3 1072967421#1 1072967420#0 -1122028503#0 1122028505 -1122028505"/>
    </vehicle>
    <vehicle id="ambulance_21" type="ambulance" depart="2520.00">
        <route edges="-423559880#1 -423559880#0 -139069980#6 -139069980#5 -139069980#3 -139069980#2 -717531847#3"/>
    </vehicle>
    <vehicle id="ambulance_22" type="ambulance" depart="2640.00">
        <route edges="-1145143266#7 -1145143266#6 -1145143266#5 -1145143266#4 -1145143266#3 -1145143266#1 -1145143266#0 700305760#0 700305760#1 700305760#2 700305760#4 700305760#5 700305760#6 700305760#7 44277692#1 44277692#2 447141149#1 447141149#2 665150702 554665390 24583321#0 24583321#1 24583321#2 997761553 997761552#0 997761552#1 994825990#0 994825990#1 994825990#2 447141148 24583327#0 24583327#1 24583327#2 24583327#3 24583327#4 24583327#5 24583327#6 24583327#7 24583327#8 24583327#9 24583327#10 24583327#11 74851428#1 74851428#2 74851428#3 74851428#4 74851428#5 74851428#5-AddedOffRampEdge 74851428#6 563791811#1 563791811#2 563791811#3 563791811#4 563791811#5 563791811#6 563791811#7 563679836#0 563679836#1 563679836#2 563679836#3 563679836#4 563679836#5 563679836#6 563679836#7 562499724#1 562499724#2 562499724#3 562499724#4 -562499724#4 -562499724#3"/>
    </vehicle>
    <vehicle id="ambulance_23" type="ambulance" depart="2760.00">
        <route edges="-1292286062 111695524#5 111695524#7 44277692#1 44277692#2 447141149#1 447141149#2 665150702 554665390 24583321#0 24583321#1 24583321#2 997761553 997761552#0 997761552#1 994825990#0 994825990#1 994825990#2 447141148 572511731 447141147#0 24583334#0 24583334#1 24583334#4 24583334#5 24583337#4 24583337#5 1469015609#1 1469015609#2 1469015609#3 24583339#0 24583339#1 24583339#2 24583339#3 24583339#4 24583339#5 24583339#6 447141132#4 596373329 562340239 722082943#0 722082943#1 23134734#0 23134734#1 712992071#0 712992071#1 712992071#2 712992071#3 712992071#4 712992071#5 712992071#6 712992071#7 712992071#8 712992071#9 712992071#10 712992071#11 712992071#12 24563449#8 24563449#9 24563449#10 24563449#11 706970966#0 706970966#1 706970966#2 150409381#0 150409381#1 23134098#4 23134098#5 23134098#6 23134098#7 23134098#8 656933873 656933872#0 656933872#1 582461171#0 582461171#2 581989173#0 581989173#1 581989173#2 581989173#3 581989173#4 581989173#5 581989173#6 44831985#0 44831985#1 44831985#2 116046165#0 745652418#1 -718258885 -718258884 -716015301#5 -716015301#4 -716015301#3 -716015301#2 -716015301#1"/>
    </vehicle>
    <vehicle id="ambulance_24" type="ambulance" depart="2880.00">
        <route edges="24583768#0 24583768#2 24583768#3 24577106#2 24577106#3 24577106#4 24577106#5 24577106#6 24577106#7 998790361 447141132#0 447141132#1 447141132#2 447141132#3 447141132#4 596373329 562340239 998790359 998790356#0 998790356#1 998790356#2 998790356#3 998790356#4 998790356#5 998790356#6 998790356#7 998790356#8 998790355#1 998790354#0 998790354#1 998790354#2 998790354#3 998790354#4 998790354#5 998790354#7 998790352#0 998790352#1 998790352#3 998790352#4 998790352#5 998790358#0 998790358#1 998790358#2 998790358#3 998790358#4 998790358#5 998790358#6 998790358#7 998790358#9 998790358#10 998790358#11 998790358#12 998790358#14 998790358#15 998790358#16 998790358#17 24583593#5 1074764284#0"/>
    </vehicle>
    <vehicle id="ambulance_25" type="ambulance" depart="3000.00">
        <route edges="1066625120#4 111695524#1 111695524#2 111695524#3 111695524#4 111695524#5 111695524#7 44277692#1 44277692#2 447141149#1 447141149#2 1219699878#0 1219699878#1 1219699876#0 1219699876#1 1219699876#2 1219699876#3 1219699876#4 1219699876#5 1219699876#6 -24584373#9 -24584373#8 -24584373#7 -24584373#6 -24584373#5 -24584373#4 -24584373#3 -24584373#2 80926759#2 80926759#2-AddedOffRampEdge 686925959 -38235041#1 -38235041#0"/>
    </vehicle>
    <vehicle id="ambulance_26" type="ambulance" depart="3120.00">
        <route edges="-686771927#0 686771927#0 686771927#1 750482273#5 750482273#6 154356520#9 154356520#10 154356520#11 665921720 665921719 1312753970#0 1312753970#2 996679780#1 996679780#2 563974735#0 563974735#1 563974735#3 563974735#5 563974735#6 563974735#7 563974735#8 563974735#9 563974735#10 563974733#1 995793692#0 995793692#1 995793692#2 995793692#3 995793692#4 995793692#5 995793692#6 995793692#7 563791813 596373338#0 596373338#1 596373338#2 596373338#4 596373338#5 596373338#6 596373338#7 596373338#8 596373338#9 596373338#10 596373338#11 596373338#12 596373338#13 562340239 722082943#0 722082943#1 23134734#0 23134734#1 23134734#2 23134734#3 709276133#0 709276133#1 709276133#2 709276133#3 722082930 709276136 722082931 1181942240 709276138#1 -359757123 1307222667#1 722082947#0 722082947#1 722082946#0 722082946#1 760536612 680551209 758488038 758753872 758753873 24577391#0 24577391#1 24577391#2 1053851216 -1053851218 24577401 570427351 683766457 24577396 24577405 782686028#0 782686028#1 782686028#2 782686029 27422253#0 27422253#1 27422253#2 782774058 782774057#0 782774057#1 782774057#2 782774057#3 782774057#4"/>
    </vehicle>
    <vehicle id="ambulance_27" type="ambulance" depart="3240.00">
        <route edges="24584378#7 24584378#8 24584378#9 447141140 722082949#0 722082949#1 447141153#0 611866595#0 611866595#1 611866595#2 611866595#3 611866595#4 611866594 611866596#0 611866596#1 1066077570#0 1066077570#1 1066077570#2 447141137#1 447141137#2 758753881#1 590609994#0 590609994#1 572511730 447141148 24583327#0 24583327#1 24583327#2 24583327#3 24583327#4 24583327#5 24583327#6 24583327#7 24583327#8 24583327#9 24583327#10 24583327#11 1066619122#0 1066619122#1 24583487#0 24583487#1 24583487#2 24583487#3 24583487#5 24583487#6 24583487#8"/>
    </vehicle>
    <vehicle id="ambulance_28" type="ambulance" depart="3360.00">
        <route edges="-24583588 24583588 596373338#6 596373338#7 596373338#8 596373338#9 596373338#10 596373338#11 596373338#12 596373338#13 562340239 722082943#0 722082943#1 23134734#0 23134734#1 23134734#2 23134734#3 710645770 447141133#0 447141133#1 722082944 447141132#0 447141132#1 370545701#0 370545701#1 370545701#2 1469015609#5 24583337#0 24583337#1 24583337#2 24583335#0 24583335#1 24583335#2 24583335#4 24583335#5 447141147#2 24583324#0 24583324#1 590609994#0 590609994#1 717907807#0 717907807#1 717907807#2 717907807#3 717907807#4 717907807#6 24583320#0 24583320#1 570526051 447141152#0 447141152#1 48964552#0"/>
    </vehicle>
    <vehicle id="ambulance_29" type="ambulance" depart="3480.00">
        <route edges="-24583489#3 -24583489#2 -24583489#1 -24583489#0 24583332#11 24583332#14 24583332#16 24583332#17 554665390 570526052 24583320#0 24583320#1 570526051 447141152#0 447141152#1 570526053 447141150#0 111695525#0"/>
    </vehicle>
</routes>
